power-feeders/Taxonomy_feeders/R4_1247_2_t6.glm
//Input feeder information for Taxonomy Feeders with different cases.
//Started on 10/21/09. This version created 25-Feb-2019 18:35:26.
// This version was created to perform FY11 Department of Energy
// analysis on the benefits of the SGIG grant projects.

clock {
     timezone CST+6CDT;
     starttime '2009-01-01 00:00:00';
     stoptime '2010-01-02 00:00:00';
}

#include "appliance_schedules.glm";
#include "water_and_setpoint_schedule_v5.glm";
#include "commercial_schedules.glm";
#include "daily_elasticity_schedules.glm";
//#define stylesheet=http://gridlab-d.svn.sourceforge.net/viewvc/gridlab-d/trunk/core/gridlabd-2_0
#set minimum_timestep=60;
#set profiler=1;
#set relax_naming_rules=1;

module tape;
module climate;
module residential {
     implicit_enduses NONE;
};
module powerflow {
     solver_method NR;
     NR_iteration_limit 50;
};

class player {
     double value;
};

module market;

class auction {
     double my_avg;
     double my_std;
};

object player {
     name CPP_days_R4;
     file CPP_days_R4.player;
};

object auction {
     name Market_1;
     period 900;
     special_mode BUYERS_ONLY;
     unit kW;
     my_avg 0.087912;
     my_std 0.030040;
     object player {
          file R4_1247_2_t0_TOU.player;
          loop 10;
          property current_market.clearing_price;
     };
}

object climate {
     name "TN-Nashville";
     tmyfile "TN-Nashville.tmy2";
     interpolate QUADRATIC;
};

//Configurations

object regulator_configuration {     
      name regulator_configuration_1596;     
      name feeder_reg_cfg;     
      Control OUTPUT_VOLTAGE;     
      band_center 7518.0;     
      band_width 120;     
      connect_type WYE_WYE;     
      time_delay 30;     
      raise_taps 16;     
      lower_taps 16;     
      regulation 0.10;     
      tap_pos_A 0;     
      tap_pos_B 0;     
      tap_pos_C 0;     
}       

object line_configuration {     
      name line_configuration_26;     
      conductor_C overhead_line_conductor_2;     
      conductor_N overhead_line_conductor_2;     
      spacing line_spacing_11;     
}       

object line_configuration {     
      name line_configuration_27;     
      conductor_C overhead_line_conductor_3;     
      conductor_N overhead_line_conductor_3;     
      spacing line_spacing_11;     
}       

object line_configuration {     
      name line_configuration_28;     
      conductor_C overhead_line_conductor_4;     
      conductor_N overhead_line_conductor_4;     
      spacing line_spacing_11;     
}       

object line_configuration {     
      name line_configuration_29;     
      conductor_A overhead_line_conductor_2;     
      conductor_N overhead_line_conductor_2;     
      spacing line_spacing_12;     
}       

object line_configuration {     
      name line_configuration_30;     
      conductor_A overhead_line_conductor_2;     
      conductor_B overhead_line_conductor_2;     
      conductor_N overhead_line_conductor_2;     
      spacing line_spacing_13;     
}       

object line_configuration {     
      name line_configuration_31;     
      conductor_A overhead_line_conductor_2;     
      conductor_B overhead_line_conductor_2;     
      conductor_N overhead_line_conductor_2;     
      spacing line_spacing_14;     
}       

object line_configuration {     
      name line_configuration_32;     
      conductor_B overhead_line_conductor_2;     
      conductor_N overhead_line_conductor_2;     
      spacing line_spacing_15;     
}       

object line_configuration {     
      name line_configuration_33;     
      conductor_A overhead_line_conductor_3;     
      conductor_B overhead_line_conductor_3;     
      conductor_C overhead_line_conductor_3;     
      conductor_N overhead_line_conductor_3;     
      spacing line_spacing_16;     
}       

object line_configuration {     
      name line_configuration_34;     
      conductor_B overhead_line_conductor_2;     
      conductor_C overhead_line_conductor_2;     
      conductor_N overhead_line_conductor_2;     
      spacing line_spacing_17;     
}       

object line_configuration {     
      name line_configuration_35;     
      conductor_C overhead_line_conductor_3;     
      conductor_N overhead_line_conductor_3;     
      spacing line_spacing_11;     
}       

object line_configuration {     
      name line_configuration_36;     
      conductor_A overhead_line_conductor_3;     
      conductor_C overhead_line_conductor_3;     
      conductor_N overhead_line_conductor_3;     
      spacing line_spacing_18;     
}       

object line_configuration {     
      name line_configuration_37;     
      conductor_C underground_line_conductor_5;     
      conductor_N underground_line_conductor_5;     
      spacing line_spacing_19;     
}       

object line_configuration {     
      name line_configuration_38;     
      conductor_A underground_line_conductor_5;     
      conductor_N underground_line_conductor_5;     
      spacing line_spacing_20;     
}       

object line_configuration {     
      name line_configuration_39;     
      conductor_B underground_line_conductor_5;     
      conductor_N underground_line_conductor_5;     
      spacing line_spacing_21;     
}       

object line_configuration {     
      name line_configuration_40;     
      conductor_A underground_line_conductor_5;     
      conductor_B underground_line_conductor_5;     
      conductor_C underground_line_conductor_5;     
      conductor_N underground_line_conductor_5;     
      spacing line_spacing_22;     
}       

object line_configuration {     
      name line_configuration_41;     
      conductor_A overhead_line_conductor_6;     
      conductor_B overhead_line_conductor_6;     
      conductor_C overhead_line_conductor_6;     
      conductor_N overhead_line_conductor_6;     
      spacing line_spacing_23;     
}       

object line_configuration {     
      name line_configuration_42;     
      conductor_A overhead_line_conductor_6;     
      conductor_B overhead_line_conductor_6;     
      conductor_C overhead_line_conductor_6;     
      conductor_N overhead_line_conductor_6;     
      spacing line_spacing_16;     
}       

object line_configuration {     
      name line_configuration_43;     
      conductor_A overhead_line_conductor_6;     
      conductor_B overhead_line_conductor_6;     
      conductor_C overhead_line_conductor_6;     
      conductor_N overhead_line_conductor_6;     
      spacing line_spacing_24;     
}       

object line_configuration {     
      name line_configuration_44;     
      conductor_A overhead_line_conductor_7;     
      conductor_B overhead_line_conductor_7;     
      conductor_C overhead_line_conductor_7;     
      conductor_N overhead_line_conductor_7;     
      spacing line_spacing_23;     
}       

object line_configuration {     
      name line_configuration_45;     
      conductor_A overhead_line_conductor_8;     
      conductor_B overhead_line_conductor_8;     
      conductor_C overhead_line_conductor_8;     
      conductor_N overhead_line_conductor_8;     
      spacing line_spacing_16;     
}       

object line_configuration {     
      name line_configuration_46;     
      conductor_A overhead_line_conductor_8;     
      conductor_B overhead_line_conductor_8;     
      conductor_C overhead_line_conductor_8;     
      conductor_N overhead_line_conductor_8;     
      spacing line_spacing_23;     
}       

object line_configuration {     
      name line_configuration_47;     
      conductor_A overhead_line_conductor_3;     
      conductor_C overhead_line_conductor_3;     
      conductor_N overhead_line_conductor_3;     
      spacing line_spacing_25;     
}       

object line_configuration {     
      name line_configuration_48;     
      conductor_C overhead_line_conductor_2;     
      conductor_N overhead_line_conductor_2;     
      spacing line_spacing_11;     
}       

object line_configuration {     
      name line_configuration_49;     
      conductor_A overhead_line_conductor_7;     
      conductor_B overhead_line_conductor_7;     
      conductor_N overhead_line_conductor_7;     
      spacing line_spacing_14;     
}       

object line_configuration {     
      name line_configuration_50;     
      conductor_B underground_line_conductor_5;     
      conductor_N underground_line_conductor_5;     
      spacing line_spacing_15;     
}       

object line_configuration {     
      name line_configuration_51;     
      conductor_A underground_line_conductor_9;     
      conductor_B underground_line_conductor_9;     
      conductor_C underground_line_conductor_9;     
      conductor_N underground_line_conductor_9;     
      spacing line_spacing_22;     
}       

object line_configuration {     
      name line_configuration_52;     
      conductor_A underground_line_conductor_10;     
      conductor_B underground_line_conductor_10;     
      conductor_C underground_line_conductor_10;     
      conductor_N underground_line_conductor_10;     
      spacing line_spacing_22;     
}       

object line_configuration {     
      name line_configuration_53;     
      conductor_C underground_line_conductor_5;     
      conductor_N underground_line_conductor_5;     
      spacing line_spacing_11;     
}       

object line_spacing {     
      name line_spacing_11;     
      distance_CN 48.0 in;    
}       

object line_spacing {     
      name line_spacing_12;     
      distance_AN 48.0 in;    
}       

object line_spacing {     
      name line_spacing_13;     
      distance_AB 48.0 in;    
      distance_AN 48.0 in;    
      distance_BN 48.0 in;    
}       

object line_spacing {     
      name line_spacing_14;     
      distance_AB 51.6 in;    
      distance_AN 48.0 in;    
      distance_BN 48.0 in;    
}       

object line_spacing {     
      name line_spacing_15;     
      distance_BN 48.0 in;    
}       

object line_spacing {     
      name line_spacing_16;     
      distance_AB 57.6 in;    
      distance_BC 57.6 in;    
      distance_AC 57.6 in;    
      distance_AN 48.0 in;    
      distance_BN 48.0 in;    
      distance_CN 48.0 in;    
}       

object line_spacing {     
      name line_spacing_17;     
      distance_BC 51.6 in;    
      distance_BN 48.0 in;    
      distance_CN 48.0 in;    
}       

object line_spacing {     
      name line_spacing_18;     
      distance_AC 51.6 in;    
      distance_AN 48.0 in;    
      distance_CN 48.0 in;    
}       

object line_spacing {     
      name line_spacing_19;     
      distance_CN 0.0 in;    
}       

object line_spacing {     
      name line_spacing_20;     
      distance_AN 0.0 in;    
}       

object line_spacing {     
      name line_spacing_21;     
      distance_BN 0.0 in;    
}       

object line_spacing {     
      name line_spacing_22;     
      distance_AB 0.0 in;    
      distance_BC 0.0 in;    
      distance_AC 0.0 in;    
      distance_AN 0.0 in;    
      distance_BN 0.0 in;    
      distance_CN 0.0 in;    
}       

object line_spacing {     
      name line_spacing_23;     
      distance_AB 48.0 in;    
      distance_BC 48.0 in;    
      distance_AC 48.0 in;    
      distance_AN 48.0 in;    
      distance_BN 48.0 in;    
      distance_CN 48.0 in;    
}       

object line_spacing {     
      name line_spacing_24;     
      distance_AB 46.3 in;    
      distance_BC 46.3 in;    
      distance_AC 46.3 in;    
      distance_AN 48.0 in;    
      distance_BN 48.0 in;    
      distance_CN 48.0 in;    
}       

object line_spacing {     
      name line_spacing_25;     
      distance_AC 48.0 in;    
      distance_AN 48.0 in;    
      distance_CN 48.0 in;    
}       

object overhead_line_conductor {     
      name overhead_line_conductor_2;     
      //name 2 CU;    
      rating.summer.continuous 204.0;     
      geometric_mean_radius 0.00836 ft;    
      resistance 0.94500;     
}       

object overhead_line_conductor {     
      name overhead_line_conductor_3;     
      //name 4 CU;    
      rating.summer.continuous 149.0;     
      geometric_mean_radius 0.00663 ft;    
      resistance 1.50000;     
}       

object overhead_line_conductor {     
      name overhead_line_conductor_4;     
      //name 2 AAAC;    
      rating.summer.continuous 197.0;     
      geometric_mean_radius 0.00883 ft;    
      resistance 1.51970;     
}       

object overhead_line_conductor {     
      name overhead_line_conductor_6;     
      //name 336 ACSR;    
      rating.summer.continuous 530.0;     
      geometric_mean_radius 0.02300 ft;    
      resistance 0.30300;     
}       

object overhead_line_conductor {     
      name overhead_line_conductor_7;     
      //name 123.3 AAAC;    
      rating.summer.continuous 256.0;     
      geometric_mean_radius 0.01200 ft;    
      resistance 0.16600;     
}       

object overhead_line_conductor {     
      name overhead_line_conductor_8;     
      //name 3/0 ACSR;    
      rating.summer.continuous 300.0;     
      geometric_mean_radius 0.00600 ft;    
      resistance 0.63800;     
}       

object transformer_configuration {     
      name transformer_configuration_1072;     
      connect_type SINGLE_PHASE_CENTER_TAPPED;     
      install_type POLETOP;     
      primary_voltage 7216.88 V;    
      secondary_voltage 120 V;    
      power_rating 37.5;     
      powerA_rating 37.5;     
      resistance 0.00400;     
      reactance 0.00267;     
      shunt_impedance 365.685+315.168j;     
}       

object transformer_configuration {     
      name transformer_configuration_1073;     
      connect_type SINGLE_PHASE_CENTER_TAPPED;     
      install_type POLETOP;     
      primary_voltage 7216.88 V;    
      secondary_voltage 120 V;    
      power_rating 15.0;     
      powerA_rating 15.0;     
      resistance 0.01000;     
      reactance 0.00667;     
      shunt_impedance 318.750+354.714j;     
}       

object transformer_configuration {     
      name transformer_configuration_1074;     
      connect_type SINGLE_PHASE_CENTER_TAPPED;     
      install_type POLETOP;     
      primary_voltage 7216.88 V;    
      secondary_voltage 120 V;    
      power_rating 25.0;     
      powerA_rating 25.0;     
      resistance 0.00600;     
      reactance 0.00400;     
      shunt_impedance 339.610+423.339j;     
}       

object transformer_configuration {     
      name transformer_configuration_1075;     
      connect_type SINGLE_PHASE_CENTER_TAPPED;     
      install_type POLETOP;     
      primary_voltage 7216.88 V;    
      secondary_voltage 120 V;    
      power_rating 5;     
      powerA_rating 5;     
      resistance 0.015;     
      reactance 0.01;     
      shunt_impedance 297.890+251.481j;     
}       

object transformer_configuration {     
      name transformer_configuration_1076;     
      connect_type SINGLE_PHASE_CENTER_TAPPED;     
      install_type POLETOP;     
      primary_voltage 7216.88 V;    
      secondary_voltage 120 V;    
      power_rating 50.0;     
      powerA_rating 50.0;     
      resistance 0.00300;     
      reactance 0.00200;     
      shunt_impedance 391.760+310.797j;     
}       

object transformer_configuration {     
      name transformer_configuration_1077;     
      connect_type SINGLE_PHASE_CENTER_TAPPED;     
      install_type PADMOUNT;     
      primary_voltage 7216.88 V;    
      secondary_voltage 120 V;    
      power_rating 5;     
      powerA_rating 5;     
      resistance 0.015;     
      reactance 0.01;     
      shunt_impedance 297.890+295.727j;     
}       

object transformer_configuration {     
      name transformer_configuration_1078;     
      connect_type SINGLE_PHASE_CENTER_TAPPED;     
      install_type PADMOUNT;     
      primary_voltage 7216.88 V;    
      secondary_voltage 120 V;    
      power_rating 25.0;     
      powerA_rating 25.0;     
      resistance 0.00600;     
      reactance 0.00400;     
      shunt_impedance 339.610+365.390j;     
}       

object transformer_configuration {     
      name transformer_configuration_1079;     
      connect_type SINGLE_PHASE_CENTER_TAPPED;     
      install_type PADMOUNT;     
      primary_voltage 7216.88 V;    
      secondary_voltage 120 V;    
      power_rating 30.0;     
      powerA_rating 30.0;     
      resistance 0.00500;     
      reactance 0.00333;     
      shunt_impedance 350.040+347.181j;     
}       

object transformer_configuration {     
      name transformer_configuration_1080;     
      connect_type SINGLE_PHASE_CENTER_TAPPED;     
      install_type PADMOUNT;     
      primary_voltage 7216.88 V;    
      secondary_voltage 120 V;    
      power_rating 15.0;     
      powerA_rating 15.0;     
      resistance 0.01000;     
      reactance 0.00667;     
      shunt_impedance 318.750+313.699j;     
}       

object transformer_configuration {     
      name transformer_configuration_1081;     
      connect_type SINGLE_PHASE_CENTER_TAPPED;     
      install_type PADMOUNT;     
      primary_voltage 7216.88 V;    
      secondary_voltage 120 V;    
      power_rating 37.5;     
      powerA_rating 37.5;     
      resistance 0.00400;     
      reactance 0.00267;     
      shunt_impedance 365.685+365.923j;     
}       

object transformer_configuration {     
      name transformer_configuration_1082;     
      connect_type SINGLE_PHASE_CENTER_TAPPED;     
      install_type PADMOUNT;     
      primary_voltage 7216.88 V;    
      secondary_voltage 120 V;    
      power_rating 10.0;     
      powerA_rating 10.0;     
      resistance 0.015;     
      reactance 0.01;     
      shunt_impedance 308.320+275.496j;     
}       

object transformer_configuration {     
      name transformer_configuration_1083;     
      connect_type SINGLE_PHASE_CENTER_TAPPED;     
      install_type PADMOUNT;     
      primary_voltage 7216.88 V;    
      secondary_voltage 120 V;    
      power_rating 75.0;     
      powerA_rating 75.0;     
      resistance 0.00200;     
      reactance 0.00133;     
      shunt_impedance 443.910+370.935j;     
}       

object transformer_configuration {     
      name transformer_configuration_1084;     
      connect_type SINGLE_PHASE_CENTER_TAPPED;     
      install_type PADMOUNT;     
      primary_voltage 7216.88 V;    
      secondary_voltage 120 V;    
      power_rating 50.0;     
      powerA_rating 50.0;     
      resistance 0.00300;     
      reactance 0.00200;     
      shunt_impedance 391.760+453.719j;     
}       

object transformer_configuration {     
      name transformer_configuration_1085;     
      connect_type SINGLE_PHASE_CENTER_TAPPED;     
      install_type POLETOP;     
      primary_voltage 7216.88 V;    
      secondary_voltage 120 V;    
      power_rating 75.0;     
      powerA_rating 75.0;     
      resistance 0.00200;     
      reactance 0.00133;     
      shunt_impedance 443.910+456.899j;     
}       

object transformer_configuration {     
      name transformer_configuration_1086;     
      connect_type SINGLE_PHASE_CENTER_TAPPED;     
      install_type POLETOP;     
      primary_voltage 7216.88 V;    
      secondary_voltage 120 V;    
      power_rating 37.5;     
      powerB_rating 37.5;     
      resistance 0.00400;     
      reactance 0.00267;     
      shunt_impedance 365.685+322.256j;     
}       

object transformer_configuration {     
      name transformer_configuration_1087;     
      connect_type SINGLE_PHASE_CENTER_TAPPED;     
      install_type POLETOP;     
      primary_voltage 7216.88 V;    
      secondary_voltage 120 V;    
      power_rating 10.0;     
      powerB_rating 10.0;     
      resistance 0.015;     
      reactance 0.01;     
      shunt_impedance 308.320+341.493j;     
}       

object transformer_configuration {     
      name transformer_configuration_1088;     
      connect_type SINGLE_PHASE_CENTER_TAPPED;     
      install_type POLETOP;     
      primary_voltage 7216.88 V;    
      secondary_voltage 120 V;    
      power_rating 25.0;     
      powerB_rating 25.0;     
      resistance 0.00600;     
      reactance 0.00400;     
      shunt_impedance 339.610+295.550j;     
}       

object transformer_configuration {     
      name transformer_configuration_1089;     
      connect_type SINGLE_PHASE_CENTER_TAPPED;     
      install_type POLETOP;     
      primary_voltage 7216.88 V;    
      secondary_voltage 120 V;    
      power_rating 5;     
      powerB_rating 5;     
      resistance 0.015;     
      reactance 0.01;     
      shunt_impedance 297.890+294.263j;     
}       

object transformer_configuration {     
      name transformer_configuration_1090;     
      connect_type SINGLE_PHASE_CENTER_TAPPED;     
      install_type POLETOP;     
      primary_voltage 7216.88 V;    
      secondary_voltage 120 V;    
      power_rating 75.0;     
      powerB_rating 75.0;     
      resistance 0.00200;     
      reactance 0.00133;     
      shunt_impedance 443.910+476.794j;     
}       

object transformer_configuration {     
      name transformer_configuration_1091;     
      connect_type SINGLE_PHASE_CENTER_TAPPED;     
      install_type POLETOP;     
      primary_voltage 7216.88 V;    
      secondary_voltage 120 V;    
      power_rating 100.0;     
      powerB_rating 100.0;     
      resistance 0.00150;     
      reactance 0.00100;     
      shunt_impedance 496.060+454.355j;     
}       

object transformer_configuration {     
      name transformer_configuration_1092;     
      connect_type SINGLE_PHASE_CENTER_TAPPED;     
      install_type PADMOUNT;     
      primary_voltage 7216.88 V;    
      secondary_voltage 120 V;    
      power_rating 100.0;     
      powerB_rating 100.0;     
      resistance 0.00150;     
      reactance 0.00100;     
      shunt_impedance 496.060+478.724j;     
}       

object transformer_configuration {     
      name transformer_configuration_1093;     
      connect_type SINGLE_PHASE_CENTER_TAPPED;     
      install_type PADMOUNT;     
      primary_voltage 7216.88 V;    
      secondary_voltage 120 V;    
      power_rating 37.5;     
      powerB_rating 37.5;     
      resistance 0.00400;     
      reactance 0.00267;     
      shunt_impedance 365.685+366.769j;     
}       

object transformer_configuration {     
      name transformer_configuration_1094;     
      connect_type SINGLE_PHASE_CENTER_TAPPED;     
      install_type PADMOUNT;     
      primary_voltage 7216.88 V;    
      secondary_voltage 120 V;    
      power_rating 50.0;     
      powerB_rating 50.0;     
      resistance 0.00300;     
      reactance 0.00200;     
      shunt_impedance 391.760+468.246j;     
}       

object transformer_configuration {     
      name transformer_configuration_1095;     
      connect_type SINGLE_PHASE_CENTER_TAPPED;     
      install_type PADMOUNT;     
      primary_voltage 7216.88 V;    
      secondary_voltage 120 V;    
      power_rating 25.0;     
      powerB_rating 25.0;     
      resistance 0.00600;     
      reactance 0.00400;     
      shunt_impedance 339.610+355.199j;     
}       

object transformer_configuration {     
      name transformer_configuration_1096;     
      connect_type SINGLE_PHASE_CENTER_TAPPED;     
      install_type PADMOUNT;     
      primary_voltage 7216.88 V;    
      secondary_voltage 120 V;    
      power_rating 5;     
      powerB_rating 5;     
      resistance 0.015;     
      reactance 0.01;     
      shunt_impedance 297.890+285.995j;     
}       

object transformer_configuration {     
      name transformer_configuration_1097;     
      connect_type SINGLE_PHASE_CENTER_TAPPED;     
      install_type PADMOUNT;     
      primary_voltage 7216.88 V;    
      secondary_voltage 120 V;    
      power_rating 15.0;     
      powerB_rating 15.0;     
      resistance 0.01000;     
      reactance 0.00667;     
      shunt_impedance 318.750+311.566j;     
}       

object transformer_configuration {     
      name transformer_configuration_1098;     
      connect_type SINGLE_PHASE_CENTER_TAPPED;     
      install_type PADMOUNT;     
      primary_voltage 7216.88 V;    
      secondary_voltage 120 V;    
      power_rating 75.0;     
      powerB_rating 75.0;     
      resistance 0.00200;     
      reactance 0.00133;     
      shunt_impedance 443.910+431.468j;     
}       

object transformer_configuration {     
      name transformer_configuration_1099;     
      connect_type SINGLE_PHASE_CENTER_TAPPED;     
      install_type POLETOP;     
      primary_voltage 7216.88 V;    
      secondary_voltage 120 V;    
      power_rating 50.0;     
      powerB_rating 50.0;     
      resistance 0.00300;     
      reactance 0.00200;     
      shunt_impedance 391.760+442.952j;     
}       

object transformer_configuration {     
      name transformer_configuration_1100;     
      connect_type SINGLE_PHASE_CENTER_TAPPED;     
      install_type POLETOP;     
      primary_voltage 7216.88 V;    
      secondary_voltage 120 V;    
      power_rating 15.0;     
      powerC_rating 15.0;     
      resistance 0.01000;     
      reactance 0.00667;     
      shunt_impedance 318.750+309.686j;     
}       

object transformer_configuration {     
      name transformer_configuration_1101;     
      connect_type SINGLE_PHASE_CENTER_TAPPED;     
      install_type POLETOP;     
      primary_voltage 7216.88 V;    
      secondary_voltage 120 V;    
      power_rating 25.0;     
      powerC_rating 25.0;     
      resistance 0.00600;     
      reactance 0.00400;     
      shunt_impedance 339.610+312.723j;     
}       

object transformer_configuration {     
      name transformer_configuration_1102;     
      connect_type SINGLE_PHASE_CENTER_TAPPED;     
      install_type POLETOP;     
      primary_voltage 7216.88 V;    
      secondary_voltage 120 V;    
      power_rating 10.0;     
      powerC_rating 10.0;     
      resistance 0.015;     
      reactance 0.01;     
      shunt_impedance 308.320+315.739j;     
}       

object transformer_configuration {     
      name transformer_configuration_1103;     
      connect_type SINGLE_PHASE_CENTER_TAPPED;     
      install_type PADMOUNT;     
      primary_voltage 7216.88 V;    
      secondary_voltage 120 V;    
      power_rating 75.0;     
      powerC_rating 75.0;     
      resistance 0.00200;     
      reactance 0.00133;     
      shunt_impedance 443.910+439.709j;     
}       

object transformer_configuration {     
      name transformer_configuration_1104;     
      connect_type SINGLE_PHASE_CENTER_TAPPED;     
      install_type PADMOUNT;     
      primary_voltage 7216.88 V;    
      secondary_voltage 120 V;    
      power_rating 25.0;     
      powerC_rating 25.0;     
      resistance 0.00600;     
      reactance 0.00400;     
      shunt_impedance 339.610+366.549j;     
}       

object transformer_configuration {     
      name transformer_configuration_1105;     
      connect_type SINGLE_PHASE_CENTER_TAPPED;     
      install_type PADMOUNT;     
      primary_voltage 7216.88 V;    
      secondary_voltage 120 V;    
      power_rating 15.0;     
      powerC_rating 15.0;     
      resistance 0.01000;     
      reactance 0.00667;     
      shunt_impedance 318.750+349.332j;     
}       

object transformer_configuration {     
      name transformer_configuration_1106;     
      connect_type SINGLE_PHASE_CENTER_TAPPED;     
      install_type PADMOUNT;     
      primary_voltage 7216.88 V;    
      secondary_voltage 120 V;    
      power_rating 10.0;     
      powerC_rating 10.0;     
      resistance 0.015;     
      reactance 0.01;     
      shunt_impedance 308.320+341.838j;     
}       

object transformer_configuration {     
      name transformer_configuration_1107;     
      connect_type SINGLE_PHASE_CENTER_TAPPED;     
      install_type PADMOUNT;     
      primary_voltage 7216.88 V;    
      secondary_voltage 120 V;    
      power_rating 30.0;     
      powerC_rating 30.0;     
      resistance 0.00500;     
      reactance 0.00333;     
      shunt_impedance 350.040+372.693j;     
}       

object transformer_configuration {     
      name transformer_configuration_1108;     
      connect_type SINGLE_PHASE_CENTER_TAPPED;     
      install_type PADMOUNT;     
      primary_voltage 7216.88 V;    
      secondary_voltage 120 V;    
      power_rating 5;     
      powerC_rating 5;     
      resistance 0.015;     
      reactance 0.01;     
      shunt_impedance 297.890+316.733j;     
}       

object transformer_configuration {     
      name transformer_configuration_1109;     
      connect_type SINGLE_PHASE_CENTER_TAPPED;     
      install_type PADMOUNT;     
      primary_voltage 7216.88 V;    
      secondary_voltage 120 V;    
      power_rating 37.5;     
      powerC_rating 37.5;     
      resistance 0.00400;     
      reactance 0.00267;     
      shunt_impedance 365.685+435.285j;     
}       

object transformer_configuration {     
      name transformer_configuration_1110;     
      connect_type SINGLE_PHASE_CENTER_TAPPED;     
      install_type POLETOP;     
      primary_voltage 7216.88 V;    
      secondary_voltage 120 V;    
      power_rating 50.0;     
      powerC_rating 50.0;     
      resistance 0.00300;     
      reactance 0.00200;     
      shunt_impedance 391.760+346.315j;     
}       

object transformer_configuration {     
      name transformer_configuration_1111;     
      connect_type SINGLE_PHASE_CENTER_TAPPED;     
      install_type POLETOP;     
      primary_voltage 7216.88 V;    
      secondary_voltage 120 V;    
      power_rating 75.0;     
      powerC_rating 75.0;     
      resistance 0.00200;     
      reactance 0.00133;     
      shunt_impedance 443.910+428.493j;     
}       

object transformer_configuration {     
      name transformer_configuration_1288;     
      connect_type WYE_WYE;     
      install_type POLETOP;     
      primary_voltage 12500.000 V;    
      secondary_voltage 480 V;    
      power_rating 10.0;     
      powerA_rating 10.0;     
      resistance 0.01;     
      reactance 0.05;     
      shunt_impedance 308.320+256.058j;     
}       

object transformer_configuration {     
      name transformer_configuration_1289;     
      connect_type WYE_WYE;     
      install_type POLETOP;     
      primary_voltage 12500.000 V;    
      secondary_voltage 480 V;    
      power_rating 50.0;     
      powerA_rating 25.0;     
      powerB_rating 25.0;     
      resistance 0.00200;     
      reactance 0.01000;     
      shunt_impedance 391.760+427.778j;     
}       

object transformer_configuration {     
      name transformer_configuration_1290;     
      connect_type WYE_WYE;     
      install_type POLETOP;     
      primary_voltage 12500.000 V;    
      secondary_voltage 480 V;    
      power_rating 10.0;     
      powerB_rating 10.0;     
      resistance 0.01;     
      reactance 0.05;     
      shunt_impedance 308.320+308.984j;     
}       

object transformer_configuration {     
      name transformer_configuration_1291;     
      connect_type WYE_WYE;     
      install_type POLETOP;     
      primary_voltage 12500.000 V;    
      secondary_voltage 480 V;    
      power_rating 25.0;     
      powerB_rating 25.0;     
      resistance 0.00400;     
      reactance 0.02000;     
      shunt_impedance 339.610+329.444j;     
}       

object transformer_configuration {     
      name transformer_configuration_1292;     
      connect_type WYE_WYE;     
      install_type POLETOP;     
      primary_voltage 12500.000 V;    
      secondary_voltage 480 V;    
      power_rating 15.0;     
      powerB_rating 15.0;     
      resistance 0.00667;     
      reactance 0.03333;     
      shunt_impedance 318.750+263.893j;     
}       

object transformer_configuration {     
      name transformer_configuration_1293;     
      connect_type WYE_WYE;     
      install_type PADMOUNT;     
      primary_voltage 12500.000 V;    
      secondary_voltage 480 V;    
      power_rating 50.0;     
      powerA_rating 50.0;     
      resistance 0.00200;     
      reactance 0.01000;     
      shunt_impedance 391.760+398.946j;     
}       

object transformer_configuration {     
      name transformer_configuration_1294;     
      connect_type WYE_WYE;     
      install_type PADMOUNT;     
      primary_voltage 12500.000 V;    
      secondary_voltage 480 V;    
      power_rating 75.0;     
      powerA_rating 25.0;     
      powerB_rating 25.0;     
      powerC_rating 25.0;     
      resistance 0.00133;     
      reactance 0.00667;     
      shunt_impedance 443.910+432.380j;     
}       

object transformer_configuration {     
      name transformer_configuration_1295;     
      connect_type WYE_WYE;     
      install_type PADMOUNT;     
      primary_voltage 12500.000 V;    
      secondary_voltage 480 V;    
      power_rating 30.0;     
      powerA_rating 10.0;     
      powerB_rating 10.0;     
      powerC_rating 10.0;     
      resistance 0.00333;     
      reactance 0.01667;     
      shunt_impedance 350.040+302.617j;     
}       

object transformer_configuration {     
      name transformer_configuration_1296;     
      connect_type WYE_WYE;     
      install_type PADMOUNT;     
      primary_voltage 12500.000 V;    
      secondary_voltage 480 V;    
      power_rating 25.0;     
      powerA_rating 25.0;     
      powerB_rating 0.0;     
      powerC_rating 0.0;     
      resistance 0.00400;     
      reactance 0.02000;     
      shunt_impedance 339.610+300.302j;     
}       

object transformer_configuration {     
      name transformer_configuration_1297;     
      connect_type WYE_WYE;     
      install_type PADMOUNT;     
      primary_voltage 12500.000 V;    
      secondary_voltage 480 V;    
      power_rating 10.0;     
      powerC_rating 10.0;     
      resistance 0.01;     
      reactance 0.05;     
      shunt_impedance 308.320+284.826j;     
}       

object transformer_configuration {     
      name transformer_configuration_1298;     
      connect_type WYE_WYE;     
      install_type PADMOUNT;     
      primary_voltage 12500.000 V;    
      secondary_voltage 480 V;    
      power_rating 90.0;     
      powerA_rating 30.0;     
      powerB_rating 30.0;     
      powerC_rating 30.0;     
      resistance 0.00111;     
      reactance 0.00556;     
      shunt_impedance 475.200+463.306j;     
}       

object transformer_configuration {     
      name transformer_configuration_1299;     
      connect_type WYE_WYE;     
      install_type PADMOUNT;     
      primary_voltage 12500.000 V;    
      secondary_voltage 480 V;    
      power_rating 75.0;     
      powerA_rating 37.5;     
      powerB_rating 0.0;     
      powerC_rating 37.5;     
      resistance 0.00133;     
      reactance 0.00667;     
      shunt_impedance 443.910+370.720j;     
}       

object transformer_configuration {     
      name transformer_configuration_1300;     
      connect_type WYE_WYE;     
      install_type PADMOUNT;     
      primary_voltage 12500.000 V;    
      secondary_voltage 480 V;    
      power_rating 25.0;     
      powerC_rating 25.0;     
      resistance 0.00400;     
      reactance 0.02000;     
      shunt_impedance 339.610+333.429j;     
}       

object transformer_configuration {     
      name transformer_configuration_1301;     
      connect_type WYE_WYE;     
      install_type PADMOUNT;     
      primary_voltage 12500.000 V;    
      secondary_voltage 480 V;    
      power_rating 175.0;     
      powerA_rating 175.0;     
      powerB_rating 0.0;     
      powerC_rating 0.0;     
      resistance 0.00057;     
      reactance 0.00286;     
      shunt_impedance 652.510+692.684j;     
}       

object triplex_line_conductor {     
      name triplex_4/0 AA;    
      resistance 0.48;     
      geometric_mean_radius 0.0158;     
}       

object triplex_line_configuration {     
      name triplex_line_configuration_1;     
      conductor_1 triplex_4/0 AA;    
      conductor_2 triplex_4/0 AA;    
      conductor_N triplex_4/0 AA;    
      insulation_thickness 0.08;     
      diameter 0.522;     
}       

object underground_line_conductor {     
      name underground_line_conductor_5;     
      //name 4/0 AAC (Conc);   
      rating.summer.continuous 214.0;     
      outer_diameter 1.32;     
      conductor_gmr 0.0177 ft;    
      conductor_diameter 0.528;     
      conductor_resistance 0.433488;     
      neutral_gmr 0.0485380344339232 ft;    
      neutral_resistance 13.5696;     
      neutral_diameter 0.0641;     
      neutral_strands 11.0;     
      shield_gmr 0.00;     
      shield_resistance 0.00;     
}       

object underground_line_conductor {     
      name underground_line_conductor_9;     
      //name 1000 AAC 25kV (Conc);  
      rating.summer.continuous 564.0;     
      outer_diameter 2.291;     
      conductor_gmr 0.03592 ft;    
      conductor_diameter 1.117;     
      conductor_resistance 0.093456;     
      neutral_gmr 0.0897578842950715 ft;    
      neutral_resistance 5.48592;     
      neutral_diameter 0.1019;     
      neutral_strands 20.0;     
      shield_gmr 0.00;     
      shield_resistance 0.00;     
}       

object underground_line_conductor {     
      name underground_line_conductor_10;     
      //name 750 AAC (Conc);   
      rating.summer.continuous 425.0;     
      outer_diameter 1.96;     
      conductor_gmr 0.0321 ft;    
      conductor_diameter 0.998;     
      conductor_resistance 0.122496;     
      neutral_gmr 0.0751564095285873 ft;    
      neutral_resistance 5.3856;     
      neutral_diameter 0.1019;     
      neutral_strands 15.0;     
      shield_gmr 0.00;     
      shield_resistance 0.00;     
}       

object transformer_configuration {
     name trans_config_to_feeder;
     connect_type WYE_WYE;
     install_type PADMOUNT;
     primary_voltage 230000;
     secondary_voltage 12500.000;
     power_rating 2.6 MVA;
     impedance 0.00033+0.0022j;
}

//Start actual feeder

object meter {
     name network_node;
     bustype SWING;
     nominal_voltage 230000;
     object player {
          property voltage_A;
          loop 100;
          file V_A.player;
     };
     object player {
          property voltage_B;
          loop 100;
          file V_B.player;
     };
     object player {
          property voltage_C;
          loop 100;
          file V_C.player;
     };
     phases ABCN;
}

object transformer {
     name substation_transformer;
     from network_node;
     to R4-12-47-2_node_273;
     phases ABCN;
     configuration trans_config_to_feeder;
}

        
object regulator {     
      name R4-12-47-2_reg_1;     
      from R4-12-47-2_node_273;     
      to R4-12-47-2_meter_22;     
      phases ABCN;     
      configuration feeder_reg_cfg;     
}       
object fuse {     
      name R4-12-47-2_fuse_1;     
      phases AN;     
      from R4-12-47-2_node_234;     
      to R4-12-47-2_node_85;     
      current_limit 50000;// 75;    
      status CLOSED;     
}       
object fuse {     
      name R4-12-47-2_fuse_2;     
      phases AN;     
      from R4-12-47-2_node_45;     
      to R4-12-47-2_node_79;     
      current_limit 50000;// 75;    
      status CLOSED;     
}       
object fuse {     
      name R4-12-47-2_fuse_3;     
      phases CN;     
      from R4-12-47-2_node_257;     
      to R4-12-47-2_node_78;     
      current_limit 50000;// 50;    
      status CLOSED;     
}       
object fuse {     
      name R4-12-47-2_fuse_4;     
      phases BN;     
      from R4-12-47-2_node_44;     
      to R4-12-47-2_node_80;     
      current_limit 50000;// 75;    
      status CLOSED;     
}       
object fuse {     
      name R4-12-47-2_fuse_5;     
      phases BN;     
      from R4-12-47-2_node_43;     
      to R4-12-47-2_node_81;     
      current_limit 50000;// 75;    
      status CLOSED;     
}       
object fuse {     
      name R4-12-47-2_fuse_6;     
      phases ABCN;     
      from R4-12-47-2_node_230;     
      to R4-12-47-2_node_82;     
      current_limit 50000;// 75;    
      status CLOSED;     
}       
object fuse {     
      name R4-12-47-2_fuse_7;     
      phases BCN;     
      from R4-12-47-2_node_15;     
      to R4-12-47-2_node_84;     
      current_limit 50000;// 75;    
      status CLOSED;     
}       
object fuse {     
      name R4-12-47-2_fuse_8;     
      phases CN;     
      from R4-12-47-2_node_47;     
      to R4-12-47-2_node_88;     
      current_limit 50000;// 30;    
      status CLOSED;     
}       
object fuse {     
      name R4-12-47-2_fuse_9;     
      phases CN;     
      from R4-12-47-2_node_110;     
      to R4-12-47-2_node_89;     
      current_limit 50000;// 75;    
      status CLOSED;     
}       
object fuse {     
      name R4-12-47-2_fuse_10;     
      phases CN;     
      from R4-12-47-2_node_33;     
      to R4-12-47-2_node_90;     
      current_limit 50000;// 75;    
      status CLOSED;     
}       
object fuse {     
      name R4-12-47-2_fuse_11;     
      phases ACN;     
      from R4-12-47-2_node_12;     
      to R4-12-47-2_node_91;     
      current_limit 50000;// 75;    
      status CLOSED;     
}       
object fuse {     
      name R4-12-47-2_fuse_12;     
      phases CN;     
      from R4-12-47-2_node_53;     
      to R4-12-47-2_node_71;     
      current_limit 50000;// 50;    
      status CLOSED;     
}       
object fuse {     
      name R4-12-47-2_fuse_13;     
      phases AN;     
      from R4-12-47-2_node_9;     
      to R4-12-47-2_node_72;     
      current_limit 50000;// 75;    
      status CLOSED;     
}       
object fuse {     
      name R4-12-47-2_fuse_14;     
      phases AN;     
      from R4-12-47-2_node_9;     
      to R4-12-47-2_node_87;     
      current_limit 50000;// 75;    
      status CLOSED;     
}       
object fuse {     
      name R4-12-47-2_fuse_15;     
      phases BN;     
      from R4-12-47-2_node_10;     
      to R4-12-47-2_node_73;     
      current_limit 50000;// 75;    
      status CLOSED;     
}       
object fuse {     
      name R4-12-47-2_fuse_16;     
      phases AN;     
      from R4-12-47-2_node_10;     
      to R4-12-47-2_node_74;     
      current_limit 50000;// 75;    
      status CLOSED;     
}       
object fuse {     
      name R4-12-47-2_fuse_17;     
      phases BN;     
      from R4-12-47-2_node_17;     
      to R4-12-47-2_node_75;     
      current_limit 50000;// 60;    
      status CLOSED;     
}       
object fuse {     
      name R4-12-47-2_fuse_18;     
      phases CN;     
      from R4-12-47-2_node_17;     
      to R4-12-47-2_node_76;     
      current_limit 50000;// 60;    
      status CLOSED;     
}       
object fuse {     
      name R4-12-47-2_fuse_19;     
      phases AN;     
      from R4-12-47-2_node_24;     
      to R4-12-47-2_node_92;     
      current_limit 50000;// 75;    
      status CLOSED;     
}       
object fuse {     
      name R4-12-47-2_fuse_20;     
      phases ABCN;     
      from R4-12-47-2_node_24;     
      to R4-12-47-2_node_93;     
      current_limit 50000;// 75;    
      status CLOSED;     
}       
object fuse {     
      name R4-12-47-2_fuse_21;     
      phases ABCN;     
      from R4-12-47-2_node_25;     
      to R4-12-47-2_node_94;     
      current_limit 50000;// 75;    
      status CLOSED;     
}       
object fuse {     
      name R4-12-47-2_fuse_22;     
      phases AN;     
      from R4-12-47-2_node_25;     
      to R4-12-47-2_node_95;     
      current_limit 50000;// 75;    
      status CLOSED;     
}       
object fuse {     
      name R4-12-47-2_fuse_23;     
      phases BN;     
      from R4-12-47-2_node_11;     
      to R4-12-47-2_node_96;     
      current_limit 50000;// 75;    
      status CLOSED;     
}       
object fuse {     
      name R4-12-47-2_fuse_24;     
      phases BN;     
      from R4-12-47-2_node_11;     
      to R4-12-47-2_node_97;     
      current_limit 50000;// 75;    
      status CLOSED;     
}       
object fuse {     
      name R4-12-47-2_fuse_25;     
      phases BN;     
      from R4-12-47-2_node_10;     
      to R4-12-47-2_node_70;     
      current_limit 50000;// 80;    
      status CLOSED;     
}       
object fuse {     
      name R4-12-47-2_fuse_26;     
      phases AN;     
      from R4-12-47-2_node_41;     
      to R4-12-47-2_node_77;     
      current_limit 50000;// 80;    
      status CLOSED;     
}       
object fuse {     
      name R4-12-47-2_fuse_27;     
      phases BN;     
      from R4-12-47-2_node_41;     
      to R4-12-47-2_node_83;     
      current_limit 50000;// 80;    
      status CLOSED;     
}       
object fuse {     
      name R4-12-47-2_fuse_28;     
      phases CN;     
      from R4-12-47-2_node_41;     
      to R4-12-47-2_node_86;     
      current_limit 50000;// 80;    
      status CLOSED;     
}       

object node {
      name R4-12-47-2_load_1;     
      parent R4-12-47-2_meter_1;     
      phases AN;     
      nominal_voltage 480.00;
}


object node {
      name R4-12-47-2_load_2;     
      parent R4-12-47-2_meter_2;     
      phases ABN;     
      nominal_voltage 480.00;
}


object node {
      name R4-12-47-2_load_3;     
      parent R4-12-47-2_meter_3;     
      phases BN;     
      nominal_voltage 480.00;
}


object node {
      name R4-12-47-2_load_4;     
      parent R4-12-47-2_meter_4;     
      phases BN;     
      nominal_voltage 480.00;
}


object node {
      name R4-12-47-2_load_5;     
      parent R4-12-47-2_meter_5;     
      phases BN;     
      nominal_voltage 480.00;
}


object node {
      name R4-12-47-2_load_6;     
      parent R4-12-47-2_meter_6;     
      phases BN;     
      nominal_voltage 480.00;
}


object node {
      name R4-12-47-2_load_7;     
      parent R4-12-47-2_meter_7;     
      phases BN;     
      nominal_voltage 480.00;
}


object node {
      name R4-12-47-2_load_8;     
      parent R4-12-47-2_meter_8;     
      phases AN;     
      nominal_voltage 480.00;
}


object node {
      name R4-12-47-2_load_9;     
      parent R4-12-47-2_meter_9;     
      phases ABCN;     
      nominal_voltage 480.00;
}


object node {
      name R4-12-47-2_load_10;     
      parent R4-12-47-2_meter_10;     
      phases ABCN;     
      nominal_voltage 480.00;
}


object node {
      name R4-12-47-2_load_11;     
      parent R4-12-47-2_meter_11;     
      phases AN;     
      nominal_voltage 480.00;
}


object node {
      name R4-12-47-2_load_12;     
      parent R4-12-47-2_meter_12;     
      phases ABCN;     
      nominal_voltage 480.00;
}


object node {
      name R4-12-47-2_load_13;     
      parent R4-12-47-2_meter_13;     
      phases ABCN;     
      nominal_voltage 480.00;
}


object node {
      name R4-12-47-2_load_14;     
      parent R4-12-47-2_meter_14;     
      phases ABCN;     
      nominal_voltage 480.00;
}


object node {
      name R4-12-47-2_load_15;     
      parent R4-12-47-2_meter_15;     
      phases CN;     
      nominal_voltage 480.00;
}


object node {
      name R4-12-47-2_load_16;     
      parent R4-12-47-2_meter_16;     
      phases ABCN;     
      nominal_voltage 480.00;
}


object node {
      name R4-12-47-2_load_17;     
      parent R4-12-47-2_meter_17;     
      phases ABCN;     
      nominal_voltage 480.00;
}


object node {
      name R4-12-47-2_load_18;     
      parent R4-12-47-2_meter_18;     
      phases ABCN;     
      nominal_voltage 480.00;
}


object node {
      name R4-12-47-2_load_19;     
      parent R4-12-47-2_meter_19;     
      phases CN;     
      nominal_voltage 480.00;
}


object node {
      name R4-12-47-2_load_20;     
      parent R4-12-47-2_meter_20;     
      phases ABCN;     
      nominal_voltage 480.00;
}


object node {
      name R4-12-47-2_load_21;     
      parent R4-12-47-2_meter_21;     
      phases ABCN;     
      nominal_voltage 480.00;
}

object meter {     
      name R4-12-47-2_meter_1;     
      phases AN;     
      voltage_A 7216.88+0.0j;     
      nominal_voltage 480;     
}       
object meter {     
      name R4-12-47-2_meter_2;     
      phases ABN;     
      voltage_A 7216.88+0.0j;     
      voltage_B -3608.44-6250j;     
      nominal_voltage 480;     
}       
object meter {     
      name R4-12-47-2_meter_3;     
      phases BN;     
      voltage_B -3608.44-6250j;     
      nominal_voltage 480;     
}       
object meter {     
      name R4-12-47-2_meter_4;     
      phases BN;     
      voltage_B -3608.44-6250j;     
      nominal_voltage 480;     
}       
object meter {     
      name R4-12-47-2_meter_5;     
      phases BN;     
      voltage_B -3608.44-6250j;     
      nominal_voltage 480;     
}       
object meter {     
      name R4-12-47-2_meter_6;     
      phases BN;     
      voltage_B -3608.44-6250j;     
      nominal_voltage 480;     
}       
object meter {     
      name R4-12-47-2_meter_7;     
      phases BN;     
      voltage_B -3608.44-6250j;     
      nominal_voltage 480;     
}       
object meter {     
      name R4-12-47-2_meter_8;     
      phases AN;     
      voltage_A 7216.88+0.0j;     
      nominal_voltage 480;     
}       
object meter {     
      name R4-12-47-2_meter_9;     
      phases ABCN;     
      voltage_A 7216.88+0.0j;     
      voltage_B -3608.44-6250j;     
      voltage_C -3608.44+6250j;     
      nominal_voltage 480;     
}       
object meter {     
      name R4-12-47-2_meter_10;     
      phases ABCN;     
      voltage_A 7216.88+0.0j;     
      voltage_B -3608.44-6250j;     
      voltage_C -3608.44+6250j;     
      nominal_voltage 480;     
}       
object meter {     
      name R4-12-47-2_meter_11;     
      phases AN;     
      voltage_A 7216.88+0.0j;     
      nominal_voltage 480;     
}       
object meter {     
      name R4-12-47-2_meter_12;     
      phases ABCN;     
      voltage_A 7216.88+0.0j;     
      voltage_B -3608.44-6250j;     
      voltage_C -3608.44+6250j;     
      nominal_voltage 480;     
}       
object meter {     
      name R4-12-47-2_meter_13;     
      phases ABCN;     
      voltage_A 7216.88+0.0j;     
      voltage_B -3608.44-6250j;     
      voltage_C -3608.44+6250j;     
      nominal_voltage 480;     
}       
object meter {     
      name R4-12-47-2_meter_14;     
      phases ABCN;     
      voltage_A 7216.88+0.0j;     
      voltage_B -3608.44-6250j;     
      voltage_C -3608.44+6250j;     
      nominal_voltage 480;     
}       
object meter {     
      name R4-12-47-2_meter_15;     
      phases CN;     
      voltage_C -3608.44+6250j;     
      nominal_voltage 480;     
}       
object meter {     
      name R4-12-47-2_meter_16;     
      phases ABCN;     
      voltage_A 7216.88+0.0j;     
      voltage_B -3608.44-6250j;     
      voltage_C -3608.44+6250j;     
      nominal_voltage 480;     
}       
object meter {     
      name R4-12-47-2_meter_17;     
      phases ABCN;     
      voltage_A 7216.88+0.0j;     
      voltage_B -3608.44-6250j;     
      voltage_C -3608.44+6250j;     
      nominal_voltage 480;     
}       
object meter {     
      name R4-12-47-2_meter_18;     
      phases ABCN;     
      voltage_A 7216.88+0.0j;     
      voltage_B -3608.44-6250j;     
      voltage_C -3608.44+6250j;     
      nominal_voltage 480;     
}       
object meter {     
      name R4-12-47-2_meter_19;     
      phases CN;     
      voltage_C -3608.44+6250j;     
      nominal_voltage 480;     
}       
object meter {     
      name R4-12-47-2_meter_20;     
      phases ABCN;     
      voltage_A 7216.88+0.0j;     
      voltage_B -3608.44-6250j;     
      voltage_C -3608.44+6250j;     
      nominal_voltage 480;     
}       
object meter {     
      name R4-12-47-2_meter_21;     
      phases ABCN;     
      voltage_A 7216.88+0.0j;     
      voltage_B -3608.44-6250j;     
      voltage_C -3608.44+6250j;     
      nominal_voltage 480;     
}       
object meter {     
      name R4-12-47-2_meter_22;     
      phases ABCN;     
      nominal_voltage 480;     
      voltage_A 7216.88+0.0j;     
      voltage_B -3608.44-6250j;     
      voltage_C -3608.44+6250j;     
}       
object node {     
      name R4-12-47-2_node_1;     
      phases BN;     
      voltage_B -3608.44-6250j;     
      nominal_voltage 7216.88;     
}       
object node {     
      name R4-12-47-2_node_2;     
      phases BN;     
      voltage_B -3608.44-6250j;     
      nominal_voltage 7216.88;     
}       
object node {     
      name R4-12-47-2_node_3;     
      phases BN;     
      voltage_B -3608.44-6250j;     
      nominal_voltage 7216.88;     
}       
object node {     
      name R4-12-47-2_node_4;     
      phases BN;     
      voltage_B -3608.44-6250j;     
      nominal_voltage 7216.88;     
}       
object node {     
      name R4-12-47-2_node_5;     
      phases AN;     
      voltage_A 7216.88+0.0j;     
      nominal_voltage 7216.88;     
}       
object node {     
      name R4-12-47-2_node_6;     
      phases AN;     
      voltage_A 7216.88+0.0j;     
      nominal_voltage 7216.88;     
}       
object node {     
      name R4-12-47-2_node_7;     
      phases BN;     
      voltage_B -3608.44-6250j;     
      nominal_voltage 7216.88;     
}       
object node {     
      name R4-12-47-2_node_8;     
      phases BN;     
      voltage_B -3608.44-6250j;     
      nominal_voltage 7216.88;     
}       
object node {     
      name R4-12-47-2_node_9;     
      phases AN;     
      voltage_A 7216.88+0.0j;     
      nominal_voltage 7216.88;     
}       
object node {     
      name R4-12-47-2_node_10;     
      phases ABN;     
      voltage_A 7216.88+0.0j;     
      voltage_B -3608.44-6250j;     
      nominal_voltage 7216.88;     
}       
object node {     
      name R4-12-47-2_node_11;     
      phases BN;     
      voltage_B -3608.44-6250j;     
      nominal_voltage 7216.88;     
}       
object node {     
      name R4-12-47-2_node_12;     
      phases ABCN;     
      voltage_A 7216.88+0.0j;     
      voltage_B -3608.44-6250j;     
      voltage_C -3608.44+6250j;     
      nominal_voltage 7216.88;     
}       
object node {     
      name R4-12-47-2_node_13;     
      phases ABCN;     
      voltage_A 7216.88+0.0j;     
      voltage_B -3608.44-6250j;     
      voltage_C -3608.44+6250j;     
      nominal_voltage 7216.88;     
}       
object node {     
      name R4-12-47-2_node_14;     
      phases ABCN;     
      voltage_A 7216.88+0.0j;     
      voltage_B -3608.44-6250j;     
      voltage_C -3608.44+6250j;     
      nominal_voltage 7216.88;     
}       
object node {     
      name R4-12-47-2_node_15;     
      phases ABCN;     
      voltage_A 7216.88+0.0j;     
      voltage_B -3608.44-6250j;     
      voltage_C -3608.44+6250j;     
      nominal_voltage 7216.88;     
}       
object node {     
      name R4-12-47-2_node_16;     
      phases ABCN;     
      voltage_A 7216.88+0.0j;     
      voltage_B -3608.44-6250j;     
      voltage_C -3608.44+6250j;     
      nominal_voltage 7216.88;     
}       
object node {     
      name R4-12-47-2_node_17;     
      phases BCN;     
      voltage_B -3608.44-6250j;     
      voltage_C -3608.44+6250j;     
      nominal_voltage 7216.88;     
}       
object node {     
      name R4-12-47-2_node_18;     
      phases ABCN;     
      voltage_A 7216.88+0.0j;     
      voltage_B -3608.44-6250j;     
      voltage_C -3608.44+6250j;     
      nominal_voltage 7216.88;     
}       
object node {     
      name R4-12-47-2_node_19;     
      phases ABCN;     
      voltage_A 7216.88+0.0j;     
      voltage_B -3608.44-6250j;     
      voltage_C -3608.44+6250j;     
      nominal_voltage 7216.88;     
}       
object node {     
      name R4-12-47-2_node_20;     
      phases ABCN;     
      voltage_A 7216.88+0.0j;     
      voltage_B -3608.44-6250j;     
      voltage_C -3608.44+6250j;     
      nominal_voltage 7216.88;     
}       
object node {     
      name R4-12-47-2_node_21;     
      phases ABCN;     
      voltage_A 7216.88+0.0j;     
      voltage_B -3608.44-6250j;     
      voltage_C -3608.44+6250j;     
      nominal_voltage 7216.88;     
}       
object node {     
      name R4-12-47-2_node_22;     
      phases ABCN;     
      voltage_A 7216.88+0.0j;     
      voltage_B -3608.44-6250j;     
      voltage_C -3608.44+6250j;     
      nominal_voltage 7216.88;     
}       
object node {     
      name R4-12-47-2_node_23;     
      phases ABCN;     
      voltage_A 7216.88+0.0j;     
      voltage_B -3608.44-6250j;     
      voltage_C -3608.44+6250j;     
      nominal_voltage 7216.88;     
}       
object node {     
      name R4-12-47-2_node_24;     
      phases ABCN;     
      voltage_A 7216.88+0.0j;     
      voltage_B -3608.44-6250j;     
      voltage_C -3608.44+6250j;     
      nominal_voltage 7216.88;     
}       
object node {     
      name R4-12-47-2_node_25;     
      phases ABCN;     
      voltage_A 7216.88+0.0j;     
      voltage_B -3608.44-6250j;     
      voltage_C -3608.44+6250j;     
      nominal_voltage 7216.88;     
}       
object node {     
      name R4-12-47-2_node_26;     
      phases ABCN;     
      voltage_A 7216.88+0.0j;     
      voltage_B -3608.44-6250j;     
      voltage_C -3608.44+6250j;     
      nominal_voltage 7216.88;     
}       
object node {     
      name R4-12-47-2_node_27;     
      phases ABCN;     
      voltage_A 7216.88+0.0j;     
      voltage_B -3608.44-6250j;     
      voltage_C -3608.44+6250j;     
      nominal_voltage 7216.88;     
}       
object node {     
      name R4-12-47-2_node_28;     
      phases ABCN;     
      voltage_A 7216.88+0.0j;     
      voltage_B -3608.44-6250j;     
      voltage_C -3608.44+6250j;     
      nominal_voltage 7216.88;     
}       
object node {     
      name R4-12-47-2_node_29;     
      phases BN;     
      voltage_B -3608.44-6250j;     
      nominal_voltage 7216.88;     
}       
object node {     
      name R4-12-47-2_node_30;     
      phases BN;     
      voltage_B -3608.44-6250j;     
      nominal_voltage 7216.88;     
}       
object node {     
      name R4-12-47-2_node_31;     
      phases AN;     
      voltage_A 7216.88+0.0j;     
      nominal_voltage 7216.88;     
}       
object node {     
      name R4-12-47-2_node_32;     
      phases ABCN;     
      voltage_A 7216.88+0.0j;     
      voltage_B -3608.44-6250j;     
      voltage_C -3608.44+6250j;     
      nominal_voltage 7216.88;     
}       
object node {     
      name R4-12-47-2_node_33;     
      phases ABCN;     
      voltage_A 7216.88+0.0j;     
      voltage_B -3608.44-6250j;     
      voltage_C -3608.44+6250j;     
      nominal_voltage 7216.88;     
}       
object node {     
      name R4-12-47-2_node_34;     
      phases CN;     
      voltage_C -3608.44+6250j;     
      nominal_voltage 7216.88;     
}       
object node {     
      name R4-12-47-2_node_35;     
      phases ABCN;     
      voltage_A 7216.88+0.0j;     
      voltage_B -3608.44-6250j;     
      voltage_C -3608.44+6250j;     
      nominal_voltage 7216.88;     
}       
object node {     
      name R4-12-47-2_node_36;     
      phases BN;     
      voltage_B -3608.44-6250j;     
      nominal_voltage 7216.88;     
}       
object node {     
      name R4-12-47-2_node_37;     
      phases AN;     
      voltage_A 7216.88+0.0j;     
...